*SPEF "ieee 1481-1999"
*DESIGN "tiny_user_project"
*DATE "11:11:11 Fri 11 11, 1111"
*VENDOR "OpenRCX"
*PROGRAM "Parallel Extraction"
*VERSION "1.0"
*DESIGN_FLOW "NAME_SCOPE LOCAL" "PIN_CAP NONE"
*DIVIDER /
*DELIMITER :
*BUS_DELIMITER []
*T_UNIT 1 NS
*C_UNIT 1 PF
*R_UNIT 1 OHM
*L_UNIT 1 HENRY

*NAME_MAP
*1 io_in[0]
*2 io_in[10]
*3 io_in[11]
*4 io_in[12]
*5 io_in[13]
*6 io_in[14]
*7 io_in[15]
*8 io_in[16]
*9 io_in[17]
*10 io_in[18]
*11 io_in[19]
*12 io_in[1]
*13 io_in[20]
*14 io_in[21]
*15 io_in[22]
*16 io_in[23]
*17 io_in[24]
*18 io_in[25]
*19 io_in[26]
*20 io_in[27]
*21 io_in[28]
*22 io_in[29]
*23 io_in[2]
*24 io_in[30]
*25 io_in[31]
*26 io_in[32]
*27 io_in[33]
*28 io_in[34]
*29 io_in[35]
*30 io_in[36]
*31 io_in[37]
*32 io_in[3]
*33 io_in[4]
*34 io_in[5]
*35 io_in[6]
*36 io_in[7]
*37 io_in[8]
*38 io_in[9]
*39 net50
*40 net60
*41 net61
*42 net62
*43 net63
*44 net64
*45 net65
*46 net66
*47 net67
*48 net68
*49 net69
*50 net51
*51 net70
*52 net71
*53 net72
*54 net73
*55 net74
*56 net75
*57 net76
*58 net77
*59 net78
*60 net79
*61 net52
*62 net80
*63 net81
*64 net82
*65 net83
*66 net84
*67 net85
*68 net86
*69 net87
*70 net53
*71 net54
*72 net55
*73 net56
*74 net57
*75 net58
*76 net59
*77 net14
*78 net24
*79 net25
*80 net26
*81 net27
*82 net28
*83 net29
*84 net30
*85 net31
*86 net32
*87 net33
*88 net15
*89 io_out[20]
*90 io_out[21]
*91 net34
*92 net35
*93 net36
*94 net37
*95 net38
*96 net39
*97 net40
*98 net41
*99 net16
*100 net42
*101 net43
*102 net44
*103 net45
*104 net46
*105 net47
*106 net48
*107 net49
*108 net17
*109 net18
*110 net19
*111 net20
*112 net21
*113 net22
*114 net23
*117 _000_
*118 _001_
*119 _002_
*120 _003_
*121 _004_
*122 _005_
*123 _006_
*124 _007_
*125 _008_
*126 _009_
*127 _010_
*128 _011_
*129 _012_
*130 _013_
*131 _014_
*132 _015_
*133 _016_
*134 _017_
*135 _018_
*136 _019_
*137 _020_
*138 _021_
*139 _022_
*140 _023_
*141 _024_
*142 _025_
*143 _026_
*144 mod\.flipflop1\.d
*145 net1
*146 net10
*147 net11
*148 net12
*149 net13
*150 net2
*151 net3
*152 net4
*153 net5
*154 net6
*155 net7
*156 net8
*157 net9
*158 ANTENNA__028__I
*159 ANTENNA__029__A1
*160 ANTENNA__029__A2
*161 ANTENNA__029__A3
*162 ANTENNA__030__A1
*163 ANTENNA__030__A2
*164 ANTENNA__031__A1
*165 ANTENNA__031__A2
*166 ANTENNA__032__A1
*167 ANTENNA__033__A1
*168 ANTENNA__034__A1
*169 ANTENNA__035__I
*170 ANTENNA__036__I
*171 ANTENNA__037__I
*172 ANTENNA__038__A1
*173 ANTENNA__038__A3
*174 ANTENNA__039__A1
*175 ANTENNA__040__A1
*176 ANTENNA__041__A1
*177 ANTENNA__044__A1
*178 ANTENNA__045__A1
*179 ANTENNA__050__A1
*180 ANTENNA__050__A3
*181 ANTENNA__052__A1
*182 ANTENNA__053__B
*183 ANTENNA__055__A1
*184 ANTENNA__055__A2
*185 ANTENNA__056__CLK
*186 ANTENNA__056__RN
*187 ANTENNA_input10_I
*188 ANTENNA_input11_I
*189 ANTENNA_input1_I
*190 ANTENNA_input2_I
*191 ANTENNA_input3_I
*192 ANTENNA_input4_I
*193 ANTENNA_input5_I
*194 ANTENNA_input6_I
*195 ANTENNA_input7_I
*196 ANTENNA_input8_I
*197 ANTENNA_input9_I
*198 ANTENNA_output12_I
*199 FILLER_0_103
*200 FILLER_0_107
*201 FILLER_0_119
*202 FILLER_0_13
*203 FILLER_0_131
*204 FILLER_0_139
*205 FILLER_0_142
*206 FILLER_0_144
*207 FILLER_0_149
*208 FILLER_0_155
*209 FILLER_0_163
*210 FILLER_0_17
*211 FILLER_0_171
*212 FILLER_0_177
*213 FILLER_0_182
*214 FILLER_0_190
*215 FILLER_0_192
*216 FILLER_0_197
*217 FILLER_0_2
*218 FILLER_0_205
*219 FILLER_0_209
*220 FILLER_0_212
*221 FILLER_0_219
*222 FILLER_0_227
*223 FILLER_0_23
*224 FILLER_0_243
*225 FILLER_0_247
*226 FILLER_0_252
*227 FILLER_0_268
*228 FILLER_0_270
*229 FILLER_0_275
*230 FILLER_0_279
*231 FILLER_0_282
*232 FILLER_0_298
*233 FILLER_0_300
*234 FILLER_0_305
*235 FILLER_0_309
*236 FILLER_0_31
*237 FILLER_0_311
*238 FILLER_0_314
*239 FILLER_0_317
*240 FILLER_0_325
*241 FILLER_0_329
*242 FILLER_0_335
*243 FILLER_0_343
*244 FILLER_0_347
*245 FILLER_0_349
*246 FILLER_0_352
*247 FILLER_0_357
*248 FILLER_0_365
*249 FILLER_0_37
*250 FILLER_0_371
*251 FILLER_0_383
*252 FILLER_0_387
*253 FILLER_0_395
*254 FILLER_0_401
*255 FILLER_0_405
*256 FILLER_0_411
*257 FILLER_0_419
*258 FILLER_0_42
*259 FILLER_0_58
*260 FILLER_0_66
*261 FILLER_0_7
*262 FILLER_0_72
*263 FILLER_0_77
*264 FILLER_0_95
*265 FILLER_10_101
*266 FILLER_10_105
*267 FILLER_10_108
*268 FILLER_10_172
*269 FILLER_10_176
*270 FILLER_10_179
*271 FILLER_10_2
*272 FILLER_10_243
*273 FILLER_10_247
*274 FILLER_10_250
*275 FILLER_10_314
*276 FILLER_10_318
*277 FILLER_10_321
*278 FILLER_10_34
*279 FILLER_10_37
*280 FILLER_10_385
*281 FILLER_10_389
*282 FILLER_10_392
*283 FILLER_10_408
*284 FILLER_10_416
*285 FILLER_11_137
*286 FILLER_11_141
*287 FILLER_11_144
*288 FILLER_11_2
*289 FILLER_11_208
*290 FILLER_11_212
*291 FILLER_11_215
*292 FILLER_11_279
*293 FILLER_11_283
*294 FILLER_11_286
*295 FILLER_11_350
*296 FILLER_11_354
*297 FILLER_11_357
*298 FILLER_11_389
*299 FILLER_11_405
*300 FILLER_11_413
*301 FILLER_11_419
*302 FILLER_11_66
*303 FILLER_11_70
*304 FILLER_11_73
*305 FILLER_12_101
*306 FILLER_12_105
*307 FILLER_12_108
*308 FILLER_12_172
*309 FILLER_12_176
*310 FILLER_12_179
*311 FILLER_12_2
*312 FILLER_12_243
*313 FILLER_12_247
*314 FILLER_12_250
*315 FILLER_12_314
*316 FILLER_12_318
*317 FILLER_12_321
*318 FILLER_12_34
*319 FILLER_12_37
*320 FILLER_12_385
*321 FILLER_12_389
*322 FILLER_12_392
*323 FILLER_12_408
*324 FILLER_12_412
*325 FILLER_12_414
*326 FILLER_12_419
*327 FILLER_13_137
*328 FILLER_13_141
*329 FILLER_13_144
*330 FILLER_13_2
*331 FILLER_13_208
*332 FILLER_13_212
*333 FILLER_13_215
*334 FILLER_13_279
*335 FILLER_13_283
*336 FILLER_13_286
*337 FILLER_13_350
*338 FILLER_13_354
*339 FILLER_13_357
*340 FILLER_13_389
*341 FILLER_13_405
*342 FILLER_13_413
*343 FILLER_13_417
*344 FILLER_13_419
*345 FILLER_13_66
*346 FILLER_13_70
*347 FILLER_13_73
*348 FILLER_14_101
*349 FILLER_14_105
*350 FILLER_14_108
*351 FILLER_14_172
*352 FILLER_14_176
*353 FILLER_14_179
*354 FILLER_14_2
*355 FILLER_14_23
*356 FILLER_14_243
*357 FILLER_14_247
*358 FILLER_14_250
*359 FILLER_14_31
*360 FILLER_14_314
*361 FILLER_14_318
*362 FILLER_14_321
*363 FILLER_14_37
*364 FILLER_14_385
*365 FILLER_14_389
*366 FILLER_14_392
*367 FILLER_14_408
*368 FILLER_14_416
*369 FILLER_14_7
*370 FILLER_15_137
*371 FILLER_15_141
*372 FILLER_15_144
*373 FILLER_15_2
*374 FILLER_15_208
*375 FILLER_15_212
*376 FILLER_15_215
*377 FILLER_15_279
*378 FILLER_15_283
*379 FILLER_15_286
*380 FILLER_15_350
*381 FILLER_15_354
*382 FILLER_15_357
*383 FILLER_15_389
*384 FILLER_15_405
*385 FILLER_15_413
*386 FILLER_15_417
*387 FILLER_15_419
*388 FILLER_15_66
*389 FILLER_15_70
*390 FILLER_15_73
*391 FILLER_16_101
*392 FILLER_16_105
*393 FILLER_16_108
*394 FILLER_16_172
*395 FILLER_16_176
*396 FILLER_16_179
*397 FILLER_16_2
*398 FILLER_16_23
*399 FILLER_16_243
*400 FILLER_16_247
*401 FILLER_16_250
*402 FILLER_16_31
*403 FILLER_16_314
*404 FILLER_16_318
*405 FILLER_16_321
*406 FILLER_16_37
*407 FILLER_16_385
*408 FILLER_16_389
*409 FILLER_16_392
*410 FILLER_16_408
*411 FILLER_16_416
*412 FILLER_16_7
*413 FILLER_17_137
*414 FILLER_17_141
*415 FILLER_17_144
*416 FILLER_17_2
*417 FILLER_17_208
*418 FILLER_17_212
*419 FILLER_17_215
*420 FILLER_17_279
*421 FILLER_17_283
*422 FILLER_17_286
*423 FILLER_17_350
*424 FILLER_17_354
*425 FILLER_17_357
*426 FILLER_17_389
*427 FILLER_17_405
*428 FILLER_17_413
*429 FILLER_17_417
*430 FILLER_17_419
*431 FILLER_17_66
*432 FILLER_17_70
*433 FILLER_17_73
*434 FILLER_18_101
*435 FILLER_18_105
*436 FILLER_18_108
*437 FILLER_18_172
*438 FILLER_18_176
*439 FILLER_18_179
*440 FILLER_18_2
*441 FILLER_18_23
*442 FILLER_18_243
*443 FILLER_18_247
*444 FILLER_18_250
*445 FILLER_18_31
*446 FILLER_18_314
*447 FILLER_18_318
*448 FILLER_18_321
*449 FILLER_18_37
*450 FILLER_18_385
*451 FILLER_18_389
*452 FILLER_18_392
*453 FILLER_18_408
*454 FILLER_18_412
*455 FILLER_18_414
*456 FILLER_18_419
*457 FILLER_18_7
*458 FILLER_19_137
*459 FILLER_19_141
*460 FILLER_19_144
*461 FILLER_19_2
*462 FILLER_19_208
*463 FILLER_19_212
*464 FILLER_19_215
*465 FILLER_19_279
*466 FILLER_19_283
*467 FILLER_19_286
*468 FILLER_19_350
*469 FILLER_19_354
*470 FILLER_19_357
*471 FILLER_19_389
*472 FILLER_19_405
*473 FILLER_19_413
*474 FILLER_19_419
*475 FILLER_19_66
*476 FILLER_19_70
*477 FILLER_19_73
*478 FILLER_1_137
*479 FILLER_1_141
*480 FILLER_1_144
*481 FILLER_1_2
*482 FILLER_1_208
*483 FILLER_1_212
*484 FILLER_1_215
*485 FILLER_1_279
*486 FILLER_1_283
*487 FILLER_1_286
*488 FILLER_1_350
*489 FILLER_1_354
*490 FILLER_1_357
*491 FILLER_1_389
*492 FILLER_1_405
*493 FILLER_1_409
*494 FILLER_1_413
*495 FILLER_1_419
*496 FILLER_1_7
*497 FILLER_1_73
*498 FILLER_20_101
*499 FILLER_20_105
*500 FILLER_20_108
*501 FILLER_20_172
*502 FILLER_20_176
*503 FILLER_20_179
*504 FILLER_20_2
*505 FILLER_20_23
*506 FILLER_20_243
*507 FILLER_20_247
*508 FILLER_20_250
*509 FILLER_20_31
*510 FILLER_20_314
*511 FILLER_20_318
*512 FILLER_20_321
*513 FILLER_20_37
*514 FILLER_20_385
*515 FILLER_20_389
*516 FILLER_20_392
*517 FILLER_20_408
*518 FILLER_20_416
*519 FILLER_20_7
*520 FILLER_21_137
*521 FILLER_21_141
*522 FILLER_21_144
*523 FILLER_21_2
*524 FILLER_21_208
*525 FILLER_21_212
*526 FILLER_21_215
*527 FILLER_21_279
*528 FILLER_21_283
*529 FILLER_21_286
*530 FILLER_21_350
*531 FILLER_21_354
*532 FILLER_21_357
*533 FILLER_21_389
*534 FILLER_21_405
*535 FILLER_21_413
*536 FILLER_21_417
*537 FILLER_21_419
*538 FILLER_21_66
*539 FILLER_21_70
*540 FILLER_21_73
*541 FILLER_22_101
*542 FILLER_22_105
*543 FILLER_22_108
*544 FILLER_22_172
*545 FILLER_22_176
*546 FILLER_22_179
*547 FILLER_22_2
*548 FILLER_22_243
*549 FILLER_22_247
*550 FILLER_22_250
*551 FILLER_22_314
*552 FILLER_22_318
*553 FILLER_22_321
*554 FILLER_22_34
*555 FILLER_22_37
*556 FILLER_22_385
*557 FILLER_22_389
*558 FILLER_22_392
*559 FILLER_22_408
*560 FILLER_22_416
*561 FILLER_23_137
*562 FILLER_23_141
*563 FILLER_23_144
*564 FILLER_23_2
*565 FILLER_23_208
*566 FILLER_23_212
*567 FILLER_23_215
*568 FILLER_23_279
*569 FILLER_23_283
*570 FILLER_23_286
*571 FILLER_23_350
*572 FILLER_23_354
*573 FILLER_23_357
*574 FILLER_23_389
*575 FILLER_23_405
*576 FILLER_23_413
*577 FILLER_23_417
*578 FILLER_23_419
*579 FILLER_23_7
*580 FILLER_23_73
*581 FILLER_24_101
*582 FILLER_24_105
*583 FILLER_24_108
*584 FILLER_24_172
*585 FILLER_24_176
*586 FILLER_24_179
*587 FILLER_24_2
*588 FILLER_24_243
*589 FILLER_24_247
*590 FILLER_24_250
*591 FILLER_24_314
*592 FILLER_24_318
*593 FILLER_24_321
*594 FILLER_24_34
*595 FILLER_24_37
*596 FILLER_24_385
*597 FILLER_24_389
*598 FILLER_24_392
*599 FILLER_24_408
*600 FILLER_24_412
*601 FILLER_24_414
*602 FILLER_24_419
*603 FILLER_25_137
*604 FILLER_25_141
*605 FILLER_25_144
*606 FILLER_25_2
*607 FILLER_25_208
*608 FILLER_25_212
*609 FILLER_25_215
*610 FILLER_25_279
*611 FILLER_25_283
*612 FILLER_25_286
*613 FILLER_25_350
*614 FILLER_25_354
*615 FILLER_25_357
*616 FILLER_25_389
*617 FILLER_25_405
*618 FILLER_25_413
*619 FILLER_25_417
*620 FILLER_25_419
*621 FILLER_25_7
*622 FILLER_25_73
*623 FILLER_26_101
*624 FILLER_26_105
*625 FILLER_26_108
*626 FILLER_26_172
*627 FILLER_26_176
*628 FILLER_26_179
*629 FILLER_26_2
*630 FILLER_26_243
*631 FILLER_26_247
*632 FILLER_26_250
*633 FILLER_26_314
*634 FILLER_26_318
*635 FILLER_26_321
*636 FILLER_26_34
*637 FILLER_26_37
*638 FILLER_26_385
*639 FILLER_26_389
*640 FILLER_26_392
*641 FILLER_26_408
*642 FILLER_26_412
*643 FILLER_26_414
*644 FILLER_26_419
*645 FILLER_27_137
*646 FILLER_27_141
*647 FILLER_27_144
*648 FILLER_27_2
*649 FILLER_27_208
*650 FILLER_27_212
*651 FILLER_27_215
*652 FILLER_27_279
*653 FILLER_27_283
*654 FILLER_27_286
*655 FILLER_27_350
*656 FILLER_27_354
*657 FILLER_27_357
*658 FILLER_27_389
*659 FILLER_27_405
*660 FILLER_27_413
*661 FILLER_27_417
*662 FILLER_27_419
*663 FILLER_27_7
*664 FILLER_27_73
*665 FILLER_28_101
*666 FILLER_28_105
*667 FILLER_28_108
*668 FILLER_28_172
*669 FILLER_28_176
*670 FILLER_28_179
*671 FILLER_28_2
*672 FILLER_28_243
*673 FILLER_28_247
*674 FILLER_28_250
*675 FILLER_28_314
*676 FILLER_28_318
*677 FILLER_28_321
*678 FILLER_28_34
*679 FILLER_28_37
*680 FILLER_28_385
*681 FILLER_28_389
*682 FILLER_28_392
*683 FILLER_28_408
*684 FILLER_28_416
*685 FILLER_29_137
*686 FILLER_29_141
*687 FILLER_29_144
*688 FILLER_29_2
*689 FILLER_29_208
*690 FILLER_29_212
*691 FILLER_29_215
*692 FILLER_29_279
*693 FILLER_29_283
*694 FILLER_29_286
*695 FILLER_29_350
*696 FILLER_29_354
*697 FILLER_29_357
*698 FILLER_29_389
*699 FILLER_29_405
*700 FILLER_29_413
*701 FILLER_29_417
*702 FILLER_29_419
*703 FILLER_29_66
*704 FILLER_29_70
*705 FILLER_29_73
*706 FILLER_2_101
*707 FILLER_2_105
*708 FILLER_2_108
*709 FILLER_2_172
*710 FILLER_2_176
*711 FILLER_2_179
*712 FILLER_2_2
*713 FILLER_2_243
*714 FILLER_2_247
*715 FILLER_2_250
*716 FILLER_2_314
*717 FILLER_2_318
*718 FILLER_2_321
*719 FILLER_2_34
*720 FILLER_2_37
*721 FILLER_2_385
*722 FILLER_2_389
*723 FILLER_2_392
*724 FILLER_2_408
*725 FILLER_2_416
*726 FILLER_30_101
*727 FILLER_30_105
*728 FILLER_30_108
*729 FILLER_30_172
*730 FILLER_30_176
*731 FILLER_30_179
*732 FILLER_30_2
*733 FILLER_30_23
*734 FILLER_30_243
*735 FILLER_30_247
*736 FILLER_30_250
*737 FILLER_30_31
*738 FILLER_30_314
*739 FILLER_30_318
*740 FILLER_30_321
*741 FILLER_30_37
*742 FILLER_30_385
*743 FILLER_30_389
*744 FILLER_30_392
*745 FILLER_30_408
*746 FILLER_30_412
*747 FILLER_30_414
*748 FILLER_30_419
*749 FILLER_30_7
*750 FILLER_31_137
*751 FILLER_31_141
*752 FILLER_31_144
*753 FILLER_31_2
*754 FILLER_31_208
*755 FILLER_31_212
*756 FILLER_31_215
*757 FILLER_31_279
*758 FILLER_31_283
*759 FILLER_31_286
*760 FILLER_31_350
*761 FILLER_31_354
*762 FILLER_31_357
*763 FILLER_31_389
*764 FILLER_31_405
*765 FILLER_31_413
*766 FILLER_31_417
*767 FILLER_31_419
*768 FILLER_31_66
*769 FILLER_31_70
*770 FILLER_31_73
*771 FILLER_32_101
*772 FILLER_32_105
*773 FILLER_32_108
*774 FILLER_32_172
*775 FILLER_32_176
*776 FILLER_32_179
*777 FILLER_32_2
*778 FILLER_32_23
*779 FILLER_32_243
*780 FILLER_32_247
*781 FILLER_32_250
*782 FILLER_32_31
*783 FILLER_32_314
*784 FILLER_32_318
*785 FILLER_32_321
*786 FILLER_32_37
*787 FILLER_32_385
*788 FILLER_32_389
*789 FILLER_32_392
*790 FILLER_32_408
*791 FILLER_32_416
*792 FILLER_32_7
*793 FILLER_33_137
*794 FILLER_33_141
*795 FILLER_33_144
*796 FILLER_33_2
*797 FILLER_33_208
*798 FILLER_33_212
*799 FILLER_33_215
*800 FILLER_33_279
*801 FILLER_33_283
*802 FILLER_33_286
*803 FILLER_33_350
*804 FILLER_33_354
*805 FILLER_33_357
*806 FILLER_33_389
*807 FILLER_33_405
*808 FILLER_33_413
*809 FILLER_33_419
*810 FILLER_33_66
*811 FILLER_33_70
*812 FILLER_33_73
*813 FILLER_34_101
*814 FILLER_34_105
*815 FILLER_34_108
*816 FILLER_34_172
*817 FILLER_34_176
*818 FILLER_34_179
*819 FILLER_34_2
*820 FILLER_34_23
*821 FILLER_34_243
*822 FILLER_34_247
*823 FILLER_34_250
*824 FILLER_34_31
*825 FILLER_34_314
*826 FILLER_34_318
*827 FILLER_34_321
*828 FILLER_34_37
*829 FILLER_34_385
*830 FILLER_34_389
*831 FILLER_34_392
*832 FILLER_34_408
*833 FILLER_34_416
*834 FILLER_34_7
*835 FILLER_35_137
*836 FILLER_35_141
*837 FILLER_35_144
*838 FILLER_35_2
*839 FILLER_35_208
*840 FILLER_35_212
*841 FILLER_35_215
*842 FILLER_35_279
*843 FILLER_35_283
*844 FILLER_35_286
*845 FILLER_35_350
*846 FILLER_35_354
*847 FILLER_35_357
*848 FILLER_35_389
*849 FILLER_35_405
*850 FILLER_35_413
*851 FILLER_35_417
*852 FILLER_35_419
*853 FILLER_35_66
*854 FILLER_35_70
*855 FILLER_35_73
*856 FILLER_36_101
*857 FILLER_36_105
*858 FILLER_36_108
*859 FILLER_36_172
*860 FILLER_36_176
*861 FILLER_36_179
*862 FILLER_36_2
*863 FILLER_36_243
*864 FILLER_36_247
*865 FILLER_36_250
*866 FILLER_36_314
*867 FILLER_36_318
*868 FILLER_36_321
*869 FILLER_36_34
*870 FILLER_36_37
*871 FILLER_36_385
*872 FILLER_36_389
*873 FILLER_36_392
*874 FILLER_36_408
*875 FILLER_36_412
*876 FILLER_36_414
*877 FILLER_36_419
*878 FILLER_37_137
*879 FILLER_37_141
*880 FILLER_37_144
*881 FILLER_37_2
*882 FILLER_37_208
*883 FILLER_37_212
*884 FILLER_37_215
*885 FILLER_37_279
*886 FILLER_37_283
*887 FILLER_37_286
*888 FILLER_37_350
*889 FILLER_37_354
*890 FILLER_37_357
*891 FILLER_37_389
*892 FILLER_37_405
*893 FILLER_37_413
*894 FILLER_37_419
*895 FILLER_37_66
*896 FILLER_37_70
*897 FILLER_37_73
*898 FILLER_38_101
*899 FILLER_38_105
*900 FILLER_38_108
*901 FILLER_38_172
*902 FILLER_38_176
*903 FILLER_38_179
*904 FILLER_38_2
*905 FILLER_38_23
*906 FILLER_38_243
*907 FILLER_38_247
*908 FILLER_38_250
*909 FILLER_38_31
*910 FILLER_38_314
*911 FILLER_38_318
*912 FILLER_38_321
*913 FILLER_38_37
*914 FILLER_38_385
*915 FILLER_38_389
*916 FILLER_38_392
*917 FILLER_38_408
*918 FILLER_38_416
*919 FILLER_38_7
*920 FILLER_39_137
*921 FILLER_39_141
*922 FILLER_39_144
*923 FILLER_39_2
*924 FILLER_39_208
*925 FILLER_39_212
*926 FILLER_39_215
*927 FILLER_39_279
*928 FILLER_39_283
*929 FILLER_39_286
*930 FILLER_39_350
*931 FILLER_39_354
*932 FILLER_39_357
*933 FILLER_39_389
*934 FILLER_39_405
*935 FILLER_39_413
*936 FILLER_39_417
*937 FILLER_39_419
*938 FILLER_39_66
*939 FILLER_39_70
*940 FILLER_39_73
*941 FILLER_3_137
*942 FILLER_3_141
*943 FILLER_3_144
*944 FILLER_3_2
*945 FILLER_3_208
*946 FILLER_3_212
*947 FILLER_3_215
*948 FILLER_3_279
*949 FILLER_3_283
*950 FILLER_3_286
*951 FILLER_3_350
*952 FILLER_3_354
*953 FILLER_3_357
*954 FILLER_3_389
*955 FILLER_3_405
*956 FILLER_3_413
*957 FILLER_3_417
*958 FILLER_3_419
*959 FILLER_3_66
*960 FILLER_3_70
*961 FILLER_3_73
*962 FILLER_40_101
*963 FILLER_40_105
*964 FILLER_40_108
*965 FILLER_40_172
*966 FILLER_40_176
*967 FILLER_40_179
*968 FILLER_40_2
*969 FILLER_40_243
*970 FILLER_40_247
*971 FILLER_40_250
*972 FILLER_40_314
*973 FILLER_40_318
*974 FILLER_40_321
*975 FILLER_40_34
*976 FILLER_40_37
*977 FILLER_40_385
*978 FILLER_40_389
*979 FILLER_40_392
*980 FILLER_40_408
*981 FILLER_40_412
*982 FILLER_40_414
*983 FILLER_40_419
*984 FILLER_41_137
*985 FILLER_41_141
*986 FILLER_41_144
*987 FILLER_41_2
*988 FILLER_41_208
*989 FILLER_41_212
*990 FILLER_41_215
*991 FILLER_41_279
*992 FILLER_41_283
*993 FILLER_41_286
*994 FILLER_41_350
*995 FILLER_41_354
*996 FILLER_41_357
*997 FILLER_41_389
*998 FILLER_41_405
*999 FILLER_41_413
*1000 FILLER_41_417
*1001 FILLER_41_419
*1002 FILLER_41_7
*1003 FILLER_41_73
*1004 FILLER_42_101
*1005 FILLER_42_105
*1006 FILLER_42_108
*1007 FILLER_42_172
*1008 FILLER_42_176
*1009 FILLER_42_179
*1010 FILLER_42_2
*1011 FILLER_42_243
*1012 FILLER_42_247
*1013 FILLER_42_250
*1014 FILLER_42_314
*1015 FILLER_42_318
*1016 FILLER_42_321
*1017 FILLER_42_34
*1018 FILLER_42_37
*1019 FILLER_42_385
*1020 FILLER_42_389
*1021 FILLER_42_392
*1022 FILLER_42_408
*1023 FILLER_42_412
*1024 FILLER_42_414
*1025 FILLER_42_419
*1026 FILLER_43_137
*1027 FILLER_43_141
*1028 FILLER_43_144
*1029 FILLER_43_2
*1030 FILLER_43_208
*1031 FILLER_43_212
*1032 FILLER_43_215
*1033 FILLER_43_279
*1034 FILLER_43_283
*1035 FILLER_43_286
*1036 FILLER_43_350
*1037 FILLER_43_354
*1038 FILLER_43_357
*1039 FILLER_43_389
*1040 FILLER_43_405
*1041 FILLER_43_413
*1042 FILLER_43_417
*1043 FILLER_43_419
*1044 FILLER_43_7
*1045 FILLER_43_73
*1046 FILLER_44_101
*1047 FILLER_44_105
*1048 FILLER_44_108
*1049 FILLER_44_172
*1050 FILLER_44_176
*1051 FILLER_44_179
*1052 FILLER_44_2
*1053 FILLER_44_243
*1054 FILLER_44_247
*1055 FILLER_44_250
*1056 FILLER_44_314
*1057 FILLER_44_318
*1058 FILLER_44_321
*1059 FILLER_44_34
*1060 FILLER_44_37
*1061 FILLER_44_385
*1062 FILLER_44_389
*1063 FILLER_44_392
*1064 FILLER_44_408
*1065 FILLER_44_412
*1066 FILLER_44_414
*1067 FILLER_44_419
*1068 FILLER_45_137
*1069 FILLER_45_141
*1070 FILLER_45_144
*1071 FILLER_45_2
*1072 FILLER_45_208
*1073 FILLER_45_212
*1074 FILLER_45_215
*1075 FILLER_45_279
*1076 FILLER_45_283
*1077 FILLER_45_286
*1078 FILLER_45_350
*1079 FILLER_45_354
*1080 FILLER_45_357
*1081 FILLER_45_389
*1082 FILLER_45_405
*1083 FILLER_45_413
*1084 FILLER_45_417
*1085 FILLER_45_419
*1086 FILLER_45_7
*1087 FILLER_45_73
*1088 FILLER_46_101
*1089 FILLER_46_105
*1090 FILLER_46_108
*1091 FILLER_46_172
*1092 FILLER_46_176
*1093 FILLER_46_179
*1094 FILLER_46_195
*1095 FILLER_46_2
*1096 FILLER_46_203
*1097 FILLER_46_205
*1098 FILLER_46_208
*1099 FILLER_46_216
*1100 FILLER_46_223
*1101 FILLER_46_227
*1102 FILLER_46_243
*1103 FILLER_46_247
*1104 FILLER_46_250
*1105 FILLER_46_314
*1106 FILLER_46_318
*1107 FILLER_46_321
*1108 FILLER_46_34
*1109 FILLER_46_37
*1110 FILLER_46_385
*1111 FILLER_46_389
*1112 FILLER_46_392
*1113 FILLER_46_408
*1114 FILLER_46_416
*1115 FILLER_47_137
*1116 FILLER_47_141
*1117 FILLER_47_144
*1118 FILLER_47_176
*1119 FILLER_47_186
*1120 FILLER_47_190
*1121 FILLER_47_192
*1122 FILLER_47_195
*1123 FILLER_47_2
*1124 FILLER_47_202
*1125 FILLER_47_212
*1126 FILLER_47_215
*1127 FILLER_47_225
*1128 FILLER_47_229
*1129 FILLER_47_233
*1130 FILLER_47_265
*1131 FILLER_47_281
*1132 FILLER_47_283
*1133 FILLER_47_286
*1134 FILLER_47_350
*1135 FILLER_47_354
*1136 FILLER_47_357
*1137 FILLER_47_389
*1138 FILLER_47_405
*1139 FILLER_47_413
*1140 FILLER_47_419
*1141 FILLER_47_66
*1142 FILLER_47_70
*1143 FILLER_47_73
*1144 FILLER_48_101
*1145 FILLER_48_105
*1146 FILLER_48_108
*1147 FILLER_48_172
*1148 FILLER_48_176
*1149 FILLER_48_179
*1150 FILLER_48_188
*1151 FILLER_48_198
*1152 FILLER_48_2
*1153 FILLER_48_223
*1154 FILLER_48_233
*1155 FILLER_48_237
*1156 FILLER_48_241
*1157 FILLER_48_245
*1158 FILLER_48_247
*1159 FILLER_48_250
*1160 FILLER_48_314
*1161 FILLER_48_318
*1162 FILLER_48_321
*1163 FILLER_48_34
*1164 FILLER_48_37
*1165 FILLER_48_385
*1166 FILLER_48_389
*1167 FILLER_48_392
*1168 FILLER_48_408
*1169 FILLER_48_416
*1170 FILLER_49_137
*1171 FILLER_49_141
*1172 FILLER_49_144
*1173 FILLER_49_160
*1174 FILLER_49_168
*1175 FILLER_49_172
*1176 FILLER_49_176
*1177 FILLER_49_180
*1178 FILLER_49_187
*1179 FILLER_49_2
*1180 FILLER_49_212
*1181 FILLER_49_215
*1182 FILLER_49_228
*1183 FILLER_49_240
*1184 FILLER_49_244
*1185 FILLER_49_276
*1186 FILLER_49_286
*1187 FILLER_49_350
*1188 FILLER_49_354
*1189 FILLER_49_357
*1190 FILLER_49_389
*1191 FILLER_49_405
*1192 FILLER_49_413
*1193 FILLER_49_417
*1194 FILLER_49_419
*1195 FILLER_49_66
*1196 FILLER_49_70
*1197 FILLER_49_73
*1198 FILLER_4_101
*1199 FILLER_4_105
*1200 FILLER_4_108
*1201 FILLER_4_172
*1202 FILLER_4_176
*1203 FILLER_4_179
*1204 FILLER_4_2
*1205 FILLER_4_243
*1206 FILLER_4_247
*1207 FILLER_4_250
*1208 FILLER_4_314
*1209 FILLER_4_318
*1210 FILLER_4_321
*1211 FILLER_4_34
*1212 FILLER_4_37
*1213 FILLER_4_385
*1214 FILLER_4_389
*1215 FILLER_4_392
*1216 FILLER_4_408
*1217 FILLER_4_412
*1218 FILLER_4_414
*1219 FILLER_4_419
*1220 FILLER_50_101
*1221 FILLER_50_105
*1222 FILLER_50_108
*1223 FILLER_50_172
*1224 FILLER_50_176
*1225 FILLER_50_179
*1226 FILLER_50_183
*1227 FILLER_50_196
*1228 FILLER_50_2
*1229 FILLER_50_222
*1230 FILLER_50_23
*1231 FILLER_50_236
*1232 FILLER_50_246
*1233 FILLER_50_250
*1234 FILLER_50_253
*1235 FILLER_50_31
*1236 FILLER_50_317
*1237 FILLER_50_321
*1238 FILLER_50_37
*1239 FILLER_50_385
*1240 FILLER_50_389
*1241 FILLER_50_392
*1242 FILLER_50_408
*1243 FILLER_50_416
*1244 FILLER_50_7
*1245 FILLER_51_137
*1246 FILLER_51_141
*1247 FILLER_51_144
*1248 FILLER_51_160
*1249 FILLER_51_164
*1250 FILLER_51_166
*1251 FILLER_51_169
*1252 FILLER_51_2
*1253 FILLER_51_210
*1254 FILLER_51_212
*1255 FILLER_51_215
*1256 FILLER_51_228
*1257 FILLER_51_240
*1258 FILLER_51_246
*1259 FILLER_51_250
*1260 FILLER_51_282
*1261 FILLER_51_286
*1262 FILLER_51_350
*1263 FILLER_51_354
*1264 FILLER_51_357
*1265 FILLER_51_389
*1266 FILLER_51_405
*1267 FILLER_51_411
*1268 FILLER_51_419
*1269 FILLER_51_66
*1270 FILLER_51_70
*1271 FILLER_51_73
*1272 FILLER_52_101
*1273 FILLER_52_105
*1274 FILLER_52_108
*1275 FILLER_52_11
*1276 FILLER_52_172
*1277 FILLER_52_176
*1278 FILLER_52_179
*1279 FILLER_52_183
*1280 FILLER_52_187
*1281 FILLER_52_191
*1282 FILLER_52_2
*1283 FILLER_52_201
*1284 FILLER_52_226
*1285 FILLER_52_236
*1286 FILLER_52_240
*1287 FILLER_52_244
*1288 FILLER_52_250
*1289 FILLER_52_27
*1290 FILLER_52_314
*1291 FILLER_52_318
*1292 FILLER_52_321
*1293 FILLER_52_37
*1294 FILLER_52_385
*1295 FILLER_52_389
*1296 FILLER_52_392
*1297 FILLER_52_408
*1298 FILLER_52_416
*1299 FILLER_52_7
*1300 FILLER_53_13
*1301 FILLER_53_137
*1302 FILLER_53_141
*1303 FILLER_53_144
*1304 FILLER_53_176
*1305 FILLER_53_180
*1306 FILLER_53_185
*1307 FILLER_53_189
*1308 FILLER_53_19
*1309 FILLER_53_191
*1310 FILLER_53_194
*1311 FILLER_53_2
*1312 FILLER_53_202
*1313 FILLER_53_212
*1314 FILLER_53_215
*1315 FILLER_53_225
*1316 FILLER_53_233
*1317 FILLER_53_237
*1318 FILLER_53_241
*1319 FILLER_53_245
*1320 FILLER_53_277
*1321 FILLER_53_281
*1322 FILLER_53_283
*1323 FILLER_53_286
*1324 FILLER_53_350
*1325 FILLER_53_354
*1326 FILLER_53_357
*1327 FILLER_53_389
*1328 FILLER_53_405
*1329 FILLER_53_411
*1330 FILLER_53_419
*1331 FILLER_53_51
*1332 FILLER_53_67
*1333 FILLER_53_7
*1334 FILLER_53_73
*1335 FILLER_54_107
*1336 FILLER_54_112
*1337 FILLER_54_128
*1338 FILLER_54_136
*1339 FILLER_54_142
*1340 FILLER_54_15
*1341 FILLER_54_150
*1342 FILLER_54_155
*1343 FILLER_54_163
*1344 FILLER_54_165
*1345 FILLER_54_170
*1346 FILLER_54_174
*1347 FILLER_54_177
*1348 FILLER_54_19
*1349 FILLER_54_192
*1350 FILLER_54_2
*1351 FILLER_54_208
*1352 FILLER_54_212
*1353 FILLER_54_219
*1354 FILLER_54_223
*1355 FILLER_54_227
*1356 FILLER_54_233
*1357 FILLER_54_237
*1358 FILLER_54_247
*1359 FILLER_54_255
*1360 FILLER_54_259
*1361 FILLER_54_263
*1362 FILLER_54_271
*1363 FILLER_54_279
*1364 FILLER_54_282
*1365 FILLER_54_287
*1366 FILLER_54_303
*1367 FILLER_54_311
*1368 FILLER_54_317
*1369 FILLER_54_329
*1370 FILLER_54_337
*1371 FILLER_54_34
*1372 FILLER_54_341
*1373 FILLER_54_347
*1374 FILLER_54_349
*1375 FILLER_54_352
*1376 FILLER_54_368
*1377 FILLER_54_37
*1378 FILLER_54_372
*1379 FILLER_54_377
*1380 FILLER_54_387
*1381 FILLER_54_40
*1382 FILLER_54_405
*1383 FILLER_54_411
*1384 FILLER_54_419
*1385 FILLER_54_48
*1386 FILLER_54_52
*1387 FILLER_54_54
*1388 FILLER_54_59
*1389 FILLER_54_67
*1390 FILLER_54_69
*1391 FILLER_54_72
*1392 FILLER_54_77
*1393 FILLER_54_85
*1394 FILLER_54_89
*1395 FILLER_54_9
*1396 FILLER_54_97
*1397 FILLER_5_137
*1398 FILLER_5_141
*1399 FILLER_5_144
*1400 FILLER_5_2
*1401 FILLER_5_208
*1402 FILLER_5_212
*1403 FILLER_5_215
*1404 FILLER_5_279
*1405 FILLER_5_283
*1406 FILLER_5_286
*1407 FILLER_5_350
*1408 FILLER_5_354
*1409 FILLER_5_357
*1410 FILLER_5_389
*1411 FILLER_5_405
*1412 FILLER_5_413
*1413 FILLER_5_417
*1414 FILLER_5_419
*1415 FILLER_5_7
*1416 FILLER_5_73
*1417 FILLER_6_101
*1418 FILLER_6_105
*1419 FILLER_6_108
*1420 FILLER_6_172
*1421 FILLER_6_176
*1422 FILLER_6_179
*1423 FILLER_6_2
*1424 FILLER_6_243
*1425 FILLER_6_247
*1426 FILLER_6_250
*1427 FILLER_6_314
*1428 FILLER_6_318
*1429 FILLER_6_321
*1430 FILLER_6_34
*1431 FILLER_6_37
*1432 FILLER_6_385
*1433 FILLER_6_389
*1434 FILLER_6_392
*1435 FILLER_6_408
*1436 FILLER_6_412
*1437 FILLER_6_414
*1438 FILLER_6_419
*1439 FILLER_7_137
*1440 FILLER_7_141
*1441 FILLER_7_144
*1442 FILLER_7_2
*1443 FILLER_7_208
*1444 FILLER_7_212
*1445 FILLER_7_215
*1446 FILLER_7_279
*1447 FILLER_7_283
*1448 FILLER_7_286
*1449 FILLER_7_350
*1450 FILLER_7_354
*1451 FILLER_7_357
*1452 FILLER_7_389
*1453 FILLER_7_405
*1454 FILLER_7_413
*1455 FILLER_7_417
*1456 FILLER_7_419
*1457 FILLER_7_7
*1458 FILLER_7_73
*1459 FILLER_8_101
*1460 FILLER_8_105
*1461 FILLER_8_108
*1462 FILLER_8_172
*1463 FILLER_8_176
*1464 FILLER_8_179
*1465 FILLER_8_2
*1466 FILLER_8_243
*1467 FILLER_8_247
*1468 FILLER_8_250
*1469 FILLER_8_314
*1470 FILLER_8_318
*1471 FILLER_8_321
*1472 FILLER_8_34
*1473 FILLER_8_37
*1474 FILLER_8_385
*1475 FILLER_8_389
*1476 FILLER_8_392
*1477 FILLER_8_408
*1478 FILLER_8_412
*1479 FILLER_8_414
*1480 FILLER_8_419
*1481 FILLER_9_137
*1482 FILLER_9_141
*1483 FILLER_9_144
*1484 FILLER_9_2
*1485 FILLER_9_208
*1486 FILLER_9_212
*1487 FILLER_9_215
*1488 FILLER_9_279
*1489 FILLER_9_283
*1490 FILLER_9_286
*1491 FILLER_9_350
*1492 FILLER_9_354
*1493 FILLER_9_357
*1494 FILLER_9_389
*1495 FILLER_9_405
*1496 FILLER_9_413
*1497 FILLER_9_417
*1498 FILLER_9_419
*1499 FILLER_9_7
*1500 FILLER_9_73
*1501 PHY_0
*1502 PHY_1
*1503 PHY_10
*1504 PHY_100
*1505 PHY_101
*1506 PHY_102
*1507 PHY_103
*1508 PHY_104
*1509 PHY_105
*1510 PHY_106
*1511 PHY_107
*1512 PHY_108
*1513 PHY_109
*1514 PHY_11
*1515 PHY_12
*1516 PHY_13
*1517 PHY_14
*1518 PHY_15
*1519 PHY_16
*1520 PHY_17
*1521 PHY_18
*1522 PHY_19
*1523 PHY_2
*1524 PHY_20
*1525 PHY_21
*1526 PHY_22
*1527 PHY_23
*1528 PHY_24
*1529 PHY_25
*1530 PHY_26
*1531 PHY_27
*1532 PHY_28
*1533 PHY_29
*1534 PHY_3
*1535 PHY_30
*1536 PHY_31
*1537 PHY_32
*1538 PHY_33
*1539 PHY_34
*1540 PHY_35
*1541 PHY_36
*1542 PHY_37
*1543 PHY_38
*1544 PHY_39
*1545 PHY_4
*1546 PHY_40
*1547 PHY_41
*1548 PHY_42
*1549 PHY_43
*1550 PHY_44
*1551 PHY_45
*1552 PHY_46
*1553 PHY_47
*1554 PHY_48
*1555 PHY_49
*1556 PHY_5
*1557 PHY_50
*1558 PHY_51
*1559 PHY_52
*1560 PHY_53
*1561 PHY_54
*1562 PHY_55
*1563 PHY_56
*1564 PHY_57
*1565 PHY_58
*1566 PHY_59
*1567 PHY_6
*1568 PHY_60
*1569 PHY_61
*1570 PHY_62
*1571 PHY_63
*1572 PHY_64
*1573 PHY_65
*1574 PHY_66
*1575 PHY_67
*1576 PHY_68
*1577 PHY_69
*1578 PHY_7
*1579 PHY_70
*1580 PHY_71
*1581 PHY_72
*1582 PHY_73
*1583 PHY_74
*1584 PHY_75
*1585 PHY_76
*1586 PHY_77
*1587 PHY_78
*1588 PHY_79
*1589 PHY_8
*1590 PHY_80
*1591 PHY_81
*1592 PHY_82
*1593 PHY_83
*1594 PHY_84
*1595 PHY_85
*1596 PHY_86
*1597 PHY_87
*1598 PHY_88
*1599 PHY_89
*1600 PHY_9
*1601 PHY_90
*1602 PHY_91
*1603 PHY_92
*1604 PHY_93
*1605 PHY_94
*1606 PHY_95
*1607 PHY_96
*1608 PHY_97
*1609 PHY_98
*1610 PHY_99
*1611 TAP_110
*1612 TAP_111
*1613 TAP_112
*1614 TAP_113
*1615 TAP_114
*1616 TAP_115
*1617 TAP_116
*1618 TAP_117
*1619 TAP_118
*1620 TAP_119
*1621 TAP_120
*1622 TAP_121
*1623 TAP_122
*1624 TAP_123
*1625 TAP_124
*1626 TAP_125
*1627 TAP_126
*1628 TAP_127
*1629 TAP_128
*1630 TAP_129
*1631 TAP_130
*1632 TAP_131
*1633 TAP_132
*1634 TAP_133
*1635 TAP_134
*1636 TAP_135
*1637 TAP_136
*1638 TAP_137
*1639 TAP_138
*1640 TAP_139
*1641 TAP_140
*1642 TAP_141
*1643 TAP_142
*1644 TAP_143
*1645 TAP_144
*1646 TAP_145
*1647 TAP_146
*1648 TAP_147
*1649 TAP_148
*1650 TAP_149
*1651 TAP_150
*1652 TAP_151
*1653 TAP_152
*1654 TAP_153
*1655 TAP_154
*1656 TAP_155
*1657 TAP_156
*1658 TAP_157
*1659 TAP_158
*1660 TAP_159
*1661 TAP_160
*1662 TAP_161
*1663 TAP_162
*1664 TAP_163
*1665 TAP_164
*1666 TAP_165
*1667 TAP_166
*1668 TAP_167
*1669 TAP_168
*1670 TAP_169
*1671 TAP_170
*1672 TAP_171
*1673 TAP_172
*1674 TAP_173
*1675 TAP_174
*1676 TAP_175